/*--------------------------------*- C++ -*----------------------------------*\
-------------------------------------------------------------------------------
  ***    *     *  ******   *******  ******    *****     ***    *     *  ******   
 *   *   **   **  *     *  *        *     *  *     *   *   *   **    *  *     *  
*     *  * * * *  *     *  *        *     *  *        *     *  * *   *  *     *  
*******  *  *  *  ******   ****     ******    *****   *******  *  *  *  *     *  
*     *  *     *  *        *        *   *          *  *     *  *   * *  *     *  
*     *  *     *  *        *        *    *   *     *  *     *  *    **  *     *  
*     *  *     *  *        *******  *     *   *****   *     *  *     *  ******   
-------------------------------------------------------------------------------

This file is part of OpenFOAM casefiles automatically generated by AmpersandCFD*/

FoamFile
{
    version     2.0;
    format      ascii;
    class       volScalarField;
    object      epsilon;
}
dimensions      [0 2 -3 0 0 0 0];
internalField   uniform 1e-06;

boundaryField 
{
    #includeEtc "caseDicts/setConstraintTypes"

    inlet
    {
        type fixedValue;
        value uniform 0.0012656250000000003;
    }
    
    outlet
    {
        type zeroGradient;
        value uniform 1e-06;
    }
    
    front
    {
        type symmetry;
    }
    
    back
    {
        type symmetry;
    }
    
    bottom
    {
        type symmetry;
    }
    
    top
    {
        type symmetry;
    }
    
    "geom.*"
    {
        type epsilonWallFunction;
        value  $internalField;
    }
    
}