/*--------------------------------*- C++ -*----------------------------------*\
-------------------------------------------------------------------------------
  ***    *     *  ******   *******  ******    *****     ***    *     *  ******   
 *   *   **   **  *     *  *        *     *  *     *   *   *   **    *  *     *  
*     *  * * * *  *     *  *        *     *  *        *     *  * *   *  *     *  
*******  *  *  *  ******   ****     ******    *****   *******  *  *  *  *     *  
*     *  *     *  *        *        *   *          *  *     *  *   * *  *     *  
*     *  *     *  *        *        *    *   *     *  *     *  *    **  *     *  
*     *  *     *  *        *******  *     *   *****   *     *  *     *  ******   
-------------------------------------------------------------------------------

This file is part of OpenFOAM casefiles automatically generated by AmpersandCFD*/

FoamFile
{
    version     2.0;
    format      ascii;
    class       dictionary;
    object      controlDict;
}
application     simpleFoam;
startFrom       startTime;
startTime       0;
stopAt          endTime;
endTime         1000;
deltaT          1;
writeControl    runTime;
writeInterval   100;
purgeWrite      0;
writeFormat     binary;
writePrecision  6;
writeCompression off;
timeFormat      general;
timePrecision   6;
runTimeModifiable true;
adjustTimeStep  no;
maxCo           0.5;
functions
{
    #include "FOs"
};
libs
(
);
