/*--------------------------------*- C++ -*----------------------------------*\
  =========                 |
  \\      /  F ield         | OpenFOAM: The Open Source CFD Toolbox
   \\    /   O peration     | Website:  https://openfoam.org
    \\  /    A nd           | Version:  10
     \\/     M anipulation  |
\*---------------------------------------------------------------------------*/
FoamFile
{
    version         2;
    format          ascii;
    class           dictionary;
    location        "system";
    object          meshDict;
}

surfaceFile     "CAD.stl";

minCellSize 0.0002;

maxCellSize 0.0004;

boundaryCellSize 0.0003;

boundaryLayers
{
    nLayers 5;
    thicknessRatio 1.1;
    maxFirstLayerThickness 0.5;
}

// ************************************************************************* //
