/*--------------------------------*- C++ -*----------------------------------*\
| =========                 |                                                 |
| \\      /  F ield         | OpenFOAM: The Open Source CFD Toolbox           |
|  \\    /   O peration     | Version:  2306                                  |
|   \\  /    A nd           | Website:  www.openfoam.com                      |
|    \\/     M anipulation  |                                                 |
\*---------------------------------------------------------------------------*/
// * * * * * * * * * * * * * * * * * * * * * * * * * * * * * * * * * * * * * //
FoamFile
{
    version         2;
    format          ascii;
    class           dictionary;
    location        "system";
    object          meshDict;
}

surfaceFile     "CAD.stl";

minCellSize     0.0002;

maxCellSize     0.0004;

boundaryCellSize 0.0003;

boundaryLayers
{
    nLayers         5;
    thicknessRatio  1.1;
    maxFirstLayerThickness 0.5;
}

// ************************************************************************* //
